LTspice 26.0.0 for Windows
Circuit: C:\Users\minhk\OneDrive\Education\Master\04_Projects\Muscular-Atrophy-Measurement-System\hardware\simulation\EIM_ver01.net
Start Time: Sat Mar 28 01:43:15 2026
solver = Normal
Maximum thread count: 20
tnom = 27
temp = 27
method = trap
Direct Newton iteration failed to find operating point.
Starting Gmin stepping
Gmin stepping failed to find operating point. Use".option gminsteps=0" to skip all Gmin stepping.
Starting source stepping with srcstepmethod=0
Source stepping succeeded in finding the operating point.

Total elapsed time: 1.286 seconds.

Files loaded:
C:\Users\minhk\OneDrive\Education\Master\04_Projects\Muscular-Atrophy-Measurement-System\hardware\simulation\EIM_ver01.net
C:\Users\minhk\OneDrive\Education\Master\04_Projects\Muscular-Atrophy-Measurement-System\hardware\simulation\ad8130.cir
C:\Users\minhk\OneDrive\Education\Master\04_Projects\Muscular-Atrophy-Measurement-System\hardware\simulation\Ad8014.cir
C:\Users\minhk\AppData\Local\LTspice\lib\sub\AD9834.sub
C:\Users\minhk\AppData\Local\LTspice\lib\sub\UniversalOpAmp2.lib

