LTspice 26.0.0 for Windows
Circuit: C:\Users\minhk\OneDrive\Education\Master\04_Projects\Muscular-Atrophy-Measurement-System\hardware\simulation\EIM_ver01.net
Start Time: Wed Apr  8 22:25:51 2026

.step freq=10000
solver = Normal
Maximum thread count: 20
tnom = 27
temp = 27
method = trap
Direct Newton iteration succeeded in finding operating point.
Warning: Simulation tolerance relaxed to achieve convergence from 1.0048419876528722e-05 to 1.0048419876529722e-05 seconds.
Warning: Simulation tolerance relaxed to achieve convergence from 1.6448551583383608e-05 to 1.6448551583384608e-05 seconds.

Simulation stopped by user.
Total elapsed time: 7.380 seconds.

Files loaded:
C:\Users\minhk\OneDrive\Education\Master\04_Projects\Muscular-Atrophy-Measurement-System\hardware\simulation\EIM_ver01.net
C:\Users\minhk\OneDrive\Education\Master\04_Projects\Muscular-Atrophy-Measurement-System\hardware\simulation\ad8130.cir
C:\Users\minhk\OneDrive\Education\Master\04_Projects\Muscular-Atrophy-Measurement-System\hardware\simulation\Ad8014.cir
C:\Users\minhk\AppData\Local\LTspice\lib\sub\AD9834.sub
C:\Users\minhk\AppData\Local\LTspice\lib\sub\UniversalOpAmp2.lib

