LTspice 26.0.0 for Windows
Circuit: C:\Users\minhk\OneDrive\Education\Master\04_Projects\05_thesis\hardware\simulation\function_generator_ver01.net
Start Time: Thu Feb 26 22:57:21 2026
solver = Normal
Maximum thread count: 20
tnom = 27
temp = 27
method = trap
Direct Newton iteration succeeded in finding operating point.
Total elapsed time: 0.355 seconds.

Files loaded:
C:\Users\minhk\OneDrive\Education\Master\04_Projects\05_thesis\hardware\simulation\function_generator_ver01.net
C:\Users\minhk\AppData\Local\LTspice\lib\cmp\standard.bjt
C:\Users\minhk\AppData\Local\LTspice\lib\sub\AD9834.sub
C:\Users\minhk\AppData\Local\LTspice\lib\sub\LTC2.lib
C:\Users\minhk\AppData\Local\LTspice\lib\sub\UniversalOpAmp2.lib

